NexaTech Solutions
BrightEdge Innovations
Apex Dynamics
SilverLine Enterprises
StarPath Industries
ZenithGlobal
QuantumWorks
PureVision Systems
CrestPoint Technologies
Vertex Solutions
NovaCore Industries
GreenShift Technologies
HorizonTech
OmniFusion
Prodigy Innovations
EchoWave Enterprises
TerraCrest Solutions
InfinityWorks
NovaSphere Technologies
CloudBridge Solutions
QuantumShift Inc.
BlueSky Innovations
RedStone Enterprises
SynergyX Technologies
ForgeTech Industries
Elementa Solutions
PhoenixOne Enterprises
SmartGrid Innovations
PulseLine Technologies
NextEra Systems
PrimeTech Solutions
GoldPeak Innovations
Visionary Industries
Elevate Dynamics
RadiantWave Technologies
HorizonEdge Solutions
TitanWorks
Ignite Solutions
FusionPoint Technologies
ClearPath Innovations
VectorTech Industries
MatrixBridge Solutions
SparkOne Technologies
CoreFusion Systems
SummitWave Enterprises
AeroDyn Solutions
PureTech Innovations
SkyRise Technologies
InfiniteWorks
CrescentEdge Industries